# CIF file created by FINDSYM, version 7.1.3

data_findsym-output
_audit_creation_method FINDSYM

_cell_length_a     4.1167800000
_cell_length_b     4.1167800000
_cell_length_c     26.1497600000
_cell_angle_alpha  90.0000000000
_cell_angle_beta   90.0000000000
_cell_angle_gamma  120.0000000000
_cell_volume       383.8076767030

_symmetry_space_group_name_H-M "P -3 2/m 1"
_symmetry_Int_Tables_number 164
_space_group.reference_setting '164:-P 3 2"'
_space_group.transform_Pp_abc a,b,c;0,0,0

loop_
_space_group_symop_id
_space_group_symop_operation_xyz
1 x,y,z
2 -y,x-y,z
3 -x+y,-x,z
4 x-y,-y,-z
5 y,x,-z
6 -x,-x+y,-z
7 -x,-y,-z
8 y,-x+y,-z
9 x-y,x,-z
10 -x+y,y,z
11 -y,-x,z
12 x,x-y,z

loop_
_atom_type_symbol
X     
I     
Fe    

loop_
_atom_site_label
_atom_site_type_symbol
_atom_site_symmetry_multiplicity
_atom_site_Wyckoff_symbol
_atom_site_fract_x
_atom_site_fract_y
_atom_site_fract_z
_atom_site_occupancy
_atom_site_fract_symmform
X1  X    2 c  0.0000000000  0.0000000000  0.8750000000  1.0000000000 0,0,Dz 
I1  I    2 d  0.3333333333  0.6666666667  0.0625000000  1.0000000000 0,0,Dz 
Fe1 Fe   1 a  0.0000000000  0.0000000000  0.0000000000  1.0000000000 0,0,0  
X2  X    2 d  0.3333333333  0.6666666667  0.8125000000  1.0000000000 0,0,Dz 
X3  X    2 c  0.0000000000  0.0000000000  0.2500000000  1.0000000000 0,0,Dz 
X4  X    2 d  0.3333333333  0.6666666667  0.3125000000  1.0000000000 0,0,Dz 
X5  X    2 c  0.0000000000  0.0000000000  0.3750000000  1.0000000000 0,0,Dz 
X6  X    2 d  0.3333333333  0.6666666667  0.5625000000  1.0000000000 0,0,Dz 
X7  X    1 b  0.0000000000  0.0000000000  0.5000000000  1.0000000000 0,0,0  

# end of cif
